examples/test_perturbation_outputs/pert_min_cost/pglib_opf_case39_epri.m
%% MATPOWER Case Format : Version 2
function mpc = pglib_opf_case39_epri
mpc.version = '2';

%%-----  Power Flow Data  -----%%
%% system MVA base
mpc.baseMVA = 100.0;
%% bus data
%    bus_i    type    Pd    Qd    Gs    Bs    area    Vm    Va    baseKV    zone    Vmax    Vmin
mpc.bus = [
	1	1	97.6	44.2	0.0	0.0	2	1.0	0.0	345.0	1	1.06	0.94				
	2	1	0.0	0.0	0.0	0.0	2	1.0	0.0	345.0	1	1.06	0.94				
	3	1	322.0	2.4	0.0	0.0	2	1.0	0.0	345.0	1	1.06	0.94				
	4	1	500.0	184.0	0.0	0.0	1	1.0	0.0	345.0	1	1.06	0.94				
	5	1	0.0	0.0	0.0	0.0	1	1.0	0.0	345.0	1	1.06	0.94				
	6	1	0.0	0.0	0.0	0.0	1	1.0	0.0	345.0	1	1.06	0.94				
	7	1	233.8	84.0	0.0	0.0	1	1.0	0.0	345.0	1	1.06	0.94				
	8	1	522.0	176.6	0.0	0.0	1	1.0	0.0	345.0	1	1.06	0.94				
	9	1	6.5	-66.6	0.0	0.0	1	1.0	0.0	345.0	1	1.06	0.94				
	10	1	0.0	0.0	0.0	0.0	1	1.0	0.0	345.0	1	1.06	0.94				
	11	1	0.0	0.0	0.0	0.0	1	1.0	0.0	345.0	1	1.06	0.94				
	12	1	8.53	88.0	0.0	0.0	1	1.0	0.0	345.0	1	1.06	0.94				
	13	1	0.0	0.0	0.0	0.0	1	1.0	0.0	345.0	1	1.06	0.94				
	14	1	0.0	0.0	0.0	0.0	1	1.0	0.0	345.0	1	1.06	0.94				
	15	1	320.0	153.0	0.0	0.0	3	1.0	0.0	345.0	1	1.06	0.94				
	16	1	329.0	32.3	0.0	0.0	3	1.0	0.0	345.0	1	1.06	0.94				
	17	1	0.0	0.0	0.0	0.0	2	1.0	0.0	345.0	1	1.06	0.94				
	18	1	158.0	30.0	0.0	0.0	2	1.0	0.0	345.0	1	1.06	0.94				
	19	1	0.0	0.0	0.0	0.0	3	1.0	0.0	345.0	1	1.06	0.94				
	20	1	680.0	103.0	0.0	0.0	3	1.0	0.0	345.0	1	1.06	0.94				
	21	1	274.0	114.99999999999999	0.0	0.0	3	1.0	0.0	345.0	1	1.06	0.94				
	22	1	0.0	0.0	0.0	0.0	3	1.0	0.0	345.0	1	1.06	0.94				
	23	1	247.5	84.6	0.0	0.0	3	1.0	0.0	345.0	1	1.06	0.94				
	24	1	308.6	-92.2	0.0	0.0	3	1.0	0.0	345.0	1	1.06	0.94				
	25	1	224.00000000000003	47.2	0.0	0.0	2	1.0	0.0	345.0	1	1.06	0.94				
	26	1	139.0	17.0	0.0	0.0	2	1.0	0.0	345.0	1	1.06	0.94				
	27	1	281.0	75.5	0.0	0.0	2	1.0	0.0	345.0	1	1.06	0.94				
	28	1	206.0	27.6	0.0	0.0	3	1.0	0.0	345.0	1	1.06	0.94				
	29	1	283.5	26.899999999999995	0.0	0.0	3	1.0	0.0	345.0	1	1.06	0.94				
	30	2	0.0	0.0	0.0	0.0	2	1.0	0.0	345.0	1	1.06	0.94				
	31	3	9.2	4.6	0.0	0.0	1	1.0	0.0	345.0	1	1.06	0.94				
	32	2	0.0	0.0	0.0	0.0	1	1.0	0.0	345.0	1	1.06	0.94				
	33	2	0.0	0.0	0.0	0.0	3	1.0	0.0	345.0	1	1.06	0.94				
	34	2	0.0	0.0	0.0	0.0	3	1.0	0.0	345.0	1	1.06	0.94				
	35	2	0.0	0.0	0.0	0.0	3	1.0	0.0	345.0	1	1.06	0.94				
	36	2	0.0	0.0	0.0	0.0	3	1.0	0.0	345.0	1	1.06	0.94				
	37	2	0.0	0.0	0.0	0.0	2	1.0	0.0	345.0	1	1.06	0.94				
	38	2	0.0	0.0	0.0	0.0	3	1.0	0.0	345.0	1	1.06	0.94				
	39	2	1104.0	250.0	0.0	0.0	1	1.0	0.0	345.0	1	1.06	0.94				
];

%% generator data
%    bus    Pg    Qg    Qmax    Qmin    Vg    mBase    status    Pmax    Pmin    Pc1    Pc2    Qc1min    Qc1max    Qc2min    Qc2max    ramp_agc    ramp_10    ramp_30    ramp_q    apf
mpc.gen = [
	30	520.0	270.0	400.0	140.0	1.0	100.0	1	1040.0	0.0															
	31	323.0	100.0	300.0	-100.0	1.0	100.0	1	646.0	0.0															
	32	362.5	225.0	300.0	150.0	1.0	100.0	1	725.0	0.0															
	33	326.0	125.0	250.0	0.0	1.0	100.0	1	652.0	0.0															
	34	254.0	83.5	167.0	0.0	1.0	100.0	1	508.0	0.0															
	35	343.5	100.0	300.0	-100.0	1.0	100.0	1	687.0	0.0															
	36	290.0	120.0	240.0	0.0	1.0	100.0	1	580.0	0.0															
	37	282.0	125.0	250.0	0.0	1.0	100.0	1	564.0	0.0															
	38	432.5	75.0	300.0	-150.0	1.0	100.0	1	865.0	0.0															
	39	550.0	100.0	300.0	-100.0	1.0	100.0	1	1100.0	0.0															
];

%% branch data
%    f_bus    t_bus    r    x    b    rateA    rateB    rateC    ratio    angle    status    angmin    angmax
mpc.branch = [
	1	2	0.0034600503706613216	0.040630877121475735	0.7481880357267875	600.0	600.0	600.0	0	0	1	-29.999999999999996	29.999999999999996								
	1	39	0.0009131562774974299	0.02282890686028862	0.7249327932138651	1000.0	1000.0	1000.0	0	0	1	-29.999999999999996	29.999999999999996								
	2	3	0.0012890929106980696	0.014973309960000823	0.33653321776289336	500.0	500.0	500.0	0	0	1	-29.999999999999996	29.999999999999996								
	2	25	0.006999265848920349	0.008599098042957644	0.12889433021017152	500.0	500.0	500.0	0	0	1	-29.999999999999996	29.999999999999996								
	2	30	4.491194765123001e-5	0.0181316541226522	0.005321776205638199	900.0	900.0	2500.0	1.025	0.0	1	-29.999999999999996	29.999999999999996								
	3	4	0.001290224615426851	0.021139834060444045	0.2661012758546699	500.0	500.0	500.0	0	0	1	-29.999999999999996	29.999999999999996								
	3	18	0.001099392026962203	0.013292649049999454	0.19102670803935412	500.0	500.0	500.0	0	0	1	-29.999999999999996	29.999999999999996								
	4	5	0.0007969401305095053	0.012751042082876906	0.10423573233274373	600.0	600.0	600.0	0	0	1	-29.999999999999996	29.999999999999996								
	4	14	0.0008008786593206443	0.012914168376089134	0.15152690637101413	500.0	500.0	500.0	0	0	1	-29.999999999999996	29.999999999999996								
	5	6	0.00020024813912886165	0.002603225808649282	0.21565101053695063	1200.0	1200.0	1200.0	0	0	1	-29.999999999999996	29.999999999999996								
	5	8	0.0008010676922231986	0.011214947688582756	0.12510148552337932	900.0	900.0	900.0	0	0	1	-29.999999999999996	29.999999999999996								
	6	7	0.000607081281585982	0.009308579649280021	0.08650891821292957	900.0	900.0	900.0	0	0	1	-29.999999999999996	29.999999999999996								
	6	11	0.0007006765832086152	0.008207925688315512	0.12476454044647312	480.0	480.0	480.0	0	0	1	-29.999999999999996	29.999999999999996								
	6	31	8.520725415230525e-5	0.024974314191888253	0.028848863328375836	1800.0	1800.0	1800.0	1.07	0.0	1	-29.999999999999996	29.999999999999996								
	7	8	0.00040193733823232306	0.004622279389552013	0.06339451147881094	900.0	900.0	900.0	0	0	1	-29.999999999999996	29.999999999999996								
	8	9	0.002281444276111999	0.03600714214401937	0.4292694804377421	900.0	900.0	900.0	0	0	1	-29.999999999999996	29.999999999999996								
	9	39	0.0010018646151922221	0.02504661528030334	1.1842715568313968	900.0	900.0	900.0	0	0	1	-29.999999999999996	29.999999999999996								
	10	11	0.0003964527519554121	0.0042618670834410925	0.06732371808667229	600.0	600.0	600.0	0	0	1	-29.999999999999996	29.999999999999996								
	10	13	0.0004002469544642533	0.004302654760406712	0.09171593908637839	600.0	600.0	600.0	0	0	1	-29.999999999999996	29.999999999999996								
	10	32	5.477634387355834e-5	0.02002408634849996	0.005326426060698227	900.0	900.0	2500.0	1.07	0.0	1	-29.999999999999996	29.999999999999996								
	12	11	0.0016913342445839315	0.04598314894497686	0.011655098356477172	500.0	500.0	500.0	1.006	0.0	1	-29.999999999999996	29.999999999999996								
	12	13	0.0014311537299051959	0.03890949154631752	0.01577370934927679	500.0	500.0	500.0	1.006	0.0	1	-29.999999999999996	29.999999999999996								
	13	14	0.0009026584972164659	0.010129834245271875	0.17550233798889125	600.0	600.0	600.0	0	0	1	-29.999999999999996	29.999999999999996								
	14	15	0.0017832310580455266	0.021497841074214215	0.25660600363254615	600.0	600.0	600.0	0	0	1	-29.999999999999996	29.999999999999996								
	15	16	0.0008999816095228425	0.00939980792089248	0.17169966393629926	600.0	600.0	600.0	0	0	1	-29.999999999999996	29.999999999999996								
	16	17	0.0007045993130367935	0.008958476978906822	0.15568482213717144	600.0	600.0	600.0	0	0	1	-29.999999999999996	29.999999999999996								
	16	19	0.0016395352619732284	0.019981835992815052	0.29110750106049676	600.0	600.0	2500.0	0	0	1	-29.999999999999996	29.999999999999996								
	16	21	0.0007955041094399218	0.01342413184037954	0.20326772173983684	600.0	600.0	600.0	0	0	1	-29.999999999999996	29.999999999999996								
	16	24	0.00029891068464019474	0.0058785767971769876	0.029078601908298255	600.0	600.0	600.0	0	0	1	-29.999999999999996	29.999999999999996								
	17	18	0.00070332965494587	0.008239004528644019	0.133055434694331	600.0	600.0	600.0	0	0	1	-29.999999999999996	29.999999999999996								
	17	27	0.0013037977514255544	0.01735053929827063	0.36661034967152767	600.0	600.0	600.0	0	0	1	-29.999999999999996	29.999999999999996								
	19	20	0.0006909585696928208	0.013621754650629349	0.16099939611797598	900.0	900.0	2500.0	1.06	0.0	1	-29.999999999999996	29.999999999999996								
	19	33	0.0006931754597989915	0.014061559316300206	0.005326465909025902	900.0	900.0	2500.0	1.07	0.0	1	-29.999999999999996	29.999999999999996								
	20	34	0.0009031672063418626	0.018063344103497088	0.19279622651520772	900.0	900.0	2500.0	1.009	0.0	1	-29.999999999999996	29.999999999999996								
	21	22	0.0008015504301505096	0.014027132520512324	0.14294995746847672	900.0	900.0	900.0	0	0	1	-29.999999999999996	29.999999999999996								
	22	23	0.0006022223911470695	0.009635558256139369	0.30510085254965763	600.0	600.0	600.0	0	0	1	-29.999999999999996	29.999999999999996								
	22	35	2.7938064349148384e-5	0.0143006290536505	0.0912209522881199	900.0	900.0	2500.0	1.025	0.0	1	-29.999999999999996	29.999999999999996								
	23	24	0.0021385563400004256	0.03402248713594457	0.42567463963249025	600.0	600.0	600.0	0	0	1	-29.999999999999996	29.999999999999996								
	23	36	0.0004937302468099754	0.026858924781641813	0.005322478647163752	900.0	900.0	2500.0	0	0	1	-29.999999999999996	29.999999999999996								
	25	26	0.0032110283318511935	0.0324113171912625	0.4687647081121719	600.0	600.0	600.0	0	0	1	-29.999999999999996	29.999999999999996								
	25	37	0.0006180510041810898	0.023897971943462343	0.0053217156933322894	900.0	900.0	2500.0	1.025	0.0	1	-29.999999999999996	29.999999999999996								
	26	27	0.0014073515332171473	0.014777191095629286	0.26261821471777824	600.0	600.0	600.0	0	0	1	-29.999999999999996	29.999999999999996								
	26	28	0.004326625676181632	0.04769350150307568	0.7353560586732085	600.0	600.0	600.0	0	0	1	-29.999999999999996	29.999999999999996								
	26	29	0.005823169913955952	0.06385054697100463	1.0196652138386944	600.0	600.0	600.0	0	0	1	-29.999999999999996	29.999999999999996								
	28	29	0.0014091469346367157	0.015198656219618592	0.2788923517337214	600.0	600.0	600.0	0	0	1	-29.999999999999996	29.999999999999996								
	29	38	0.0007909627000295071	0.015423772636533249	0.005322890357717236	1200.0	1200.0	2500.0	1.025	0.0	1	-29.999999999999996	29.999999999999996								
];

%%-----  OPF Data  -----%%
%% cost data
%    1    startup    shutdown    n    x1    y1    ...    xn    yn
%    2    startup    shutdown    n    c(n-1)    ...    c0
mpc.gencost = [
	2	0.0	0.0	2	6.724778000000001	0.0
	2	0.0	0.0	2	14.707625	0.0
	2	0.0	0.0	2	24.804734	0.0
	2	0.0	0.0	2	34.844643	0.0
	2	0.0	0.0	2	24.652994	0.0
	2	0.0	0.0	2	32.306483	0.0
	2	0.0	0.0	2	18.157477	0.0
	2	0.0	0.0	2	31.550181	0.0
	2	0.0	0.0	2	22.503168000000002	0.0
	2	0.0	0.0	2	27.434444	0.0
];

